				All The lexems are : 

C
program
for
implementation
of
Bubble
sort
include
bits
stdc
h
using
namespace
std
void
swap
int
xp
int
yp
int
temp
xp
xp
yp
yp
temp
A
function
to
implement
bubble
sort
void
bubbleSort
int
arr
int
n
int
i
j
for
i
i
n
i
Last
i
elements
are
already
in
place
for
j
j
n
i
j
if
arr
j
arr
j
swap
arr
j
arr
j
Function
to
print
an
array
void
printArray
int
arr
int
size
int
i
for
i
i
size
i
cout
arr
i
cout
endl
Driver
code
int
main
int
arr
int
n
sizeof
arr
sizeof
arr
bubbleSort
arr
n
cout
Sorted
array
n
printArray
arr
n
return
This
code
is
contributed
by
rathbhupendra


			The lexems and their number of occurances are as follows : 
int                           12
arr                           12
i                             11
j                             8
n                             7
for                           4
yp                            3
cout                          3
xp                            3
void                          3
sort                          2
swap                          2
array                         2
sizeof                        2
size                          2
bubbleSort                    2
code                          2
temp                          2
printArray                    2
to                            2
of                            1
program                       1
namespace                     1
main                          1
implementation                1
using                         1
place                         1
print                         1
stdc                          1
rathbhupendra                 1
return                        1
std                           1
bubble                        1
Bubble                        1
C                             1
Driver                        1
Function                      1
Last                          1
Sorted                        1
This                          1
already                       1
an                            1
are                           1
bits                          1
is                            1
by                            1
contributed                   1
elements                      1
endl                          1
function                      1
h                             1
if                            1
implement                     1
A                             1
in                            1
include                       1


					 Code ends 
